Circuit: * C:\WORKS\WS\Electronics\Sims\D-11_v-1-0_e-1_LMC555+PNP+NPN__v-1.0-e1-t2.asc

Direct Newton iteration for .op point succeeded.

Date: Sat Jul 06 10:38:27 2013
Total elapsed time: 0.262 seconds.

tnom = 27
temp = 27
method = modified trap
totiter = 14014
traniter = 14006
tranpoints = 3535
accept = 2940
rejected = 595
matrix size = 15
fillins = 0
solver = Normal
Matrix Compiler1: 398 ƒoƒCƒg object code size  0.3/0.3/[0.1]
Matrix Compiler2: off  [0.2]/0.5/0.4


