Circuit: * C:\WORKS\WS\Electronics\Sims\D-11_v-1-0_e-1_LMC555+PNP+NPN__v-1.0-e-1-a1.asc

Direct Newton iteration for .op point succeeded.

Date: Sat Jul 06 10:49:18 2013
Total elapsed time: 0.180 seconds.

tnom = 27
temp = 27
method = modified trap
totiter = 15281
traniter = 15238
tranpoints = 3780
accept = 3121
rejected = 659
matrix size = 17
fillins = 2
solver = Normal
Matrix Compiler1: 694 ƒoƒCƒg object code size  0.5/0.4/[0.3]
Matrix Compiler2: off  [0.2]/0.6/2.5


