Circuit: * C:\WORKS\WS\Electronics\Sims\D-15_v-1-0_e-1_Integral-circuit.asc

Limiting rise time of source v1 to 0.001
Limiting fall time of source v1 to 0.001
.OP point found by inspection.

Date: Sun Jul 28 16:59:29 2013
Total elapsed time: 0.109 seconds.

tnom = 27
temp = 27
method = modified trap
totiter = 2360
traniter = 2360
tranpoints = 1140
accept = 1116
rejected = 24
matrix size = 4
fillins = 0
solver = Normal
Matrix Compiler1: 64 バイト object code size  0.2/0.1/[0.1]
Matrix Compiler2: 254 バイト object code size  0.1/0.1/[0.1]


