Circuit: * C:\WORKS\WS\Electronics\LTSpice_schematics\D-39_1.asc

C2: both pins shorted together -- ignoring.
R6: both pins shorted together -- ignoring.
Direct Newton iteration for .op point succeeded.

Date: Tue Nov 12 10:41:29 2013
Total elapsed time: 0.224 seconds.

tnom = 27
temp = 27
method = modified trap
totiter = 2135
traniter = 2088
tranpoints = 1045
accept = 1045
rejected = 0
matrix size = 15
fillins = 18
solver = Normal
Matrix Compiler1: 3.25 KB object code size  1.4/0.9/[0.4]
Matrix Compiler2: off  [0.4]/0.6/2.4


